
     RDKit          3D

 51 54  0  0  0  0  0  0  0  0999 V2000
   -1.6403   -0.0815    0.1218 C   0  0  0  0  0  0  0  0  0  0  0  0
   -0.1988    0.1710    0.4392 C   0  0  0  0  0  0  0  0  0  0  0  0
    0.8182   -0.2533   -0.4293 C   0  0  0  0  0  0  0  0  0  0  0  0
    2.1693   -0.0046   -0.1367 C   0  0  0  0  0  0  0  0  0  0  0  0
    2.5041    0.6894    1.0442 C   0  0  0  0  0  0  0  0  0  0  0  0
    1.4807    1.1202    1.9040 C   0  0  0  0  0  0  0  0  0  0  0  0
    0.1408    0.8661    1.6037 C   0  0  0  0  0  0  0  0  0  0  0  0
    3.8558    0.9365    1.3329 C   0  0  0  0  0  0  0  0  0  0  0  0
    4.8813    0.5085    0.4730 C   0  0  0  0  0  0  0  0  0  0  0  0
    4.5469   -0.1831   -0.7054 C   0  0  0  0  0  0  0  0  0  0  0  0
    3.1948   -0.4310   -0.9958 C   0  0  0  0  0  0  0  0  0  0  0  0
    5.6048   -0.6634   -1.6609 C   0  0  0  0  0  0  0  0  0  0  0  0
    6.3126    0.8008    0.8321 C   0  0  0  0  0  0  0  0  0  0  0  0
   -2.1157   -1.3367    0.3763 C   0  0  0  0  0  0  0  0  0  0  0  0
   -1.2379   -2.4540    0.9733 C   0  0  0  0  0  0  0  0  0  0  0  0
   -0.8564   -3.5191   -0.0481 C   0  0  0  0  0  0  0  0  0  0  0  0
   -3.5374   -1.8575    0.1820 C   0  0  0  0  0  0  0  0  0  0  0  0
   -4.7171   -0.9183   -0.0389 C   0  0  0  0  0  0  0  0  0  0  0  0
   -4.5945    0.3779    0.7429 C   0  0  0  0  0  0  0  0  0  0  0  0
   -3.7832    1.3361   -0.0836 C   0  0  0  0  0  0  0  0  0  0  0  0
   -2.4500    1.0593   -0.4362 C   0  0  0  0  0  0  0  0  0  0  0  0
   -1.8053    1.9700   -1.3017 C   0  0  0  0  0  0  0  0  0  0  0  0
   -2.4456    3.1130   -1.7875 C   0  0  0  0  0  0  0  0  0  0  0  0
   -3.7535    3.3808   -1.4150 C   0  0  0  0  0  0  0  0  0  0  0  0
   -4.4190    2.4968   -0.5715 C   0  0  0  0  0  0  0  0  0  0  0  0
    0.5478   -0.7797   -1.3421 H   0  0  0  0  0  0  0  0  0  0  0  0
    1.7197    1.6610    2.8168 H   0  0  0  0  0  0  0  0  0  0  0  0
   -0.6369    1.2122    2.2803 H   0  0  0  0  0  0  0  0  0  0  0  0
    4.1149    1.4728    2.2443 H   0  0  0  0  0  0  0  0  0  0  0  0
    2.9358   -0.9668   -1.9075 H   0  0  0  0  0  0  0  0  0  0  0  0
    6.1841    0.1828   -2.0436 H   0  0  0  0  0  0  0  0  0  0  0  0
    5.1661   -1.1780   -2.5224 H   0  0  0  0  0  0  0  0  0  0  0  0
    6.2752   -1.3702   -1.1619 H   0  0  0  0  0  0  0  0  0  0  0  0
    6.7788    1.4223    0.0610 H   0  0  0  0  0  0  0  0  0  0  0  0
    6.3875    1.3424    1.7811 H   0  0  0  0  0  0  0  0  0  0  0  0
    6.8756   -0.1316    0.9406 H   0  0  0  0  0  0  0  0  0  0  0  0
   -0.3233   -2.0741    1.4371 H   0  0  0  0  0  0  0  0  0  0  0  0
   -1.7754   -2.9299    1.8038 H   0  0  0  0  0  0  0  0  0  0  0  0
   -1.7346   -4.0623   -0.4107 H   0  0  0  0  0  0  0  0  0  0  0  0
   -0.3445   -3.0834   -0.9113 H   0  0  0  0  0  0  0  0  0  0  0  0
   -0.1829   -4.2512    0.4094 H   0  0  0  0  0  0  0  0  0  0  0  0
   -3.5328   -2.5851   -0.6393 H   0  0  0  0  0  0  0  0  0  0  0  0
   -3.7931   -2.4314    1.0844 H   0  0  0  0  0  0  0  0  0  0  0  0
   -5.6272   -1.4425    0.2807 H   0  0  0  0  0  0  0  0  0  0  0  0
   -4.8444   -0.7277   -1.1130 H   0  0  0  0  0  0  0  0  0  0  0  0
   -5.5986    0.7849    0.9144 H   0  0  0  0  0  0  0  0  0  0  0  0
   -4.1465    0.2366    1.7332 H   0  0  0  0  0  0  0  0  0  0  0  0
   -0.7755    1.8053   -1.6113 H   0  0  0  0  0  0  0  0  0  0  0  0
   -1.9141    3.7918   -2.4487 H   0  0  0  0  0  0  0  0  0  0  0  0
   -4.2581    4.2685   -1.7856 H   0  0  0  0  0  0  0  0  0  0  0  0
   -5.4523    2.7089   -0.3044 H   0  0  0  0  0  0  0  0  0  0  0  0
  1  2  1  0
  2  3  2  0
  3  4  1  0
  4  5  2  0
  5  6  1  0
  6  7  2  0
  5  8  1  0
  8  9  2  0
  9 10  1  0
 10 11  2  0
 10 12  1  0
  9 13  1  0
  1 14  2  0
 14 15  1  0
 15 16  1  0
 14 17  1  0
 17 18  1  0
 18 19  1  0
 19 20  1  0
 20 21  2  0
 21 22  1  0
 22 23  2  0
 23 24  1  0
 24 25  2  0
 21  1  1  0
  7  2  1  0
 25 20  1  0
 11  4  1  0
  3 26  1  0
  6 27  1  0
  7 28  1  0
  8 29  1  0
 11 30  1  0
 12 31  1  0
 12 32  1  0
 12 33  1  0
 13 34  1  0
 13 35  1  0
 13 36  1  0
 15 37  1  0
 15 38  1  0
 16 39  1  0
 16 40  1  0
 16 41  1  0
 17 42  1  0
 17 43  1  0
 18 44  1  0
 18 45  1  0
 19 46  1  0
 19 47  1  0
 22 48  1  0
 23 49  1  0
 24 50  1  0
 25 51  1  0
M  END
