735_469_2P54
 OpenBabel08091708593D

 53 55  0  0  0  0  0  0  0  0999 V2000
   11.3340   38.5270   30.6240 C   0  0  0  0  0
   10.7040   42.9690   21.6290 C   0  0  0  0  0
   12.4890   41.7080   22.9210 C   0  0  0  0  0
   10.4630   39.2930   26.1770 C   0  0  0  0  0
   10.6780   37.7500   24.2950 C   0  0  0  0  0
   17.4610   38.7740   31.4610 C   0  0  0  0  0
   15.9470   40.1280   32.8040 C   0  0  0  0  0
   18.5280   39.1460   32.2820 C   0  0  0  0  0
   17.0260   40.4990   33.6260 C   0  0  0  0  0
   10.2460   40.3530   25.2760 C   0  0  0  0  0
   10.4600   38.8120   23.3960 C   0  0  0  0  0
   10.9270   36.7910   26.5800 C   0  0  0  0  0
   12.7960   38.3530   30.2760 C   0  0  0  0  0
   10.6850   37.9790   25.6820 C   0  0  0  0  0
   16.1600   39.2560   31.7170 C   0  0  0  0  0
   18.3200   40.0100   33.3770 C   0  0  0  0  0
   10.2480   40.1170   23.8920 C   0  0  0  0  0
   13.4500   37.9350   29.1690 C   0  0  0  0  0
   15.0540   38.8430   30.8690 C   0  0  0  0  0
   12.8710   37.3880   27.9350 C   0  0  0  0  0
   11.2580   40.6940   20.9760 C   0  0  0  0  0
   11.1340   41.6070   22.1970 C   0  0  0  0  0
   19.4870   40.3810   34.2720 C   0  0  0  0  0
   13.7580   38.9120   31.2150 N   0  0  0  0  0
   11.5570   37.1190   27.8330 N   0  0  0  0  0
   12.3430   40.2150   20.6370 O   0  0  0  0  0
   13.6940   37.2080   27.0350 O   0  0  0  0  0
   10.2410   40.4190   20.3400 O   0  0  0  0  0
   10.0410   41.1880   23.0170 O   0  0  0  0  0
   19.2790   41.5360   34.8480 F   0  0  0  0  0
   20.6060   40.3670   33.5900 F   0  0  0  0  0
   19.5540   39.4490   35.1910 F   0  0  0  0  0
   15.1700   38.1210   29.2670 S   0  0  0  0  0
   11.2453   39.0735   31.5745 H   0  0  0  0  0
   10.8325   39.0950   29.8265 H   0  0  0  0  0
   10.8609   37.5390   30.7238 H   0  0  0  0  0
    9.7350   42.8648   21.1190 H   0  0  0  0  0
   10.6099   43.6952   22.4498 H   0  0  0  0  0
   11.4596   43.3220   20.9117 H   0  0  0  0  0
   12.7691   40.7201   23.3154 H   0  0  0  0  0
   13.2579   42.0516   22.2134 H   0  0  0  0  0
   12.4082   42.4248   23.7515 H   0  0  0  0  0
   10.4608   39.4777   27.2411 H   0  0  0  0  0
   10.8411   36.7520   23.9159 H   0  0  0  0  0
   17.6331   38.1129   30.6245 H   0  0  0  0  0
   14.9572   40.5103   33.0051 H   0  0  0  0  0
   19.5192   38.7694   32.0768 H   0  0  0  0  0
   16.8585   41.1671   34.4579 H   0  0  0  0  0
   10.0773   41.3516   25.6510 H   0  0  0  0  0
   10.4550   38.6290   22.3316 H   0  0  0  0  0
    9.9534   36.3290   26.8007 H   0  0  0  0  0
   11.5830   36.0891   26.0442 H   0  0  0  0  0
   10.9953   37.1479   28.6598 H   0  0  0  0  0
  1 13  1  0  0  0
  1 34  1  0  0  0
  1 35  1  0  0  0
  1 36  1  0  0  0
  2 22  1  0  0  0
  2 37  1  0  0  0
  2 38  1  0  0  0
  2 39  1  0  0  0
  3 22  1  0  0  0
  3 40  1  0  0  0
  3 41  1  0  0  0
  3 42  1  0  0  0
  4 10  2  0  0  0
  4 14  1  0  0  0
  4 43  1  0  0  0
  5 11  1  0  0  0
  5 14  2  0  0  0
  5 44  1  0  0  0
  6  8  2  0  0  0
  6 15  1  0  0  0
  6 45  1  0  0  0
  7  9  1  0  0  0
  7 15  2  0  0  0
  7 46  1  0  0  0
  8 16  1  0  0  0
  8 47  1  0  0  0
  9 16  2  0  0  0
  9 48  1  0  0  0
 10 17  1  0  0  0
 10 49  1  0  0  0
 11 17  2  0  0  0
 11 50  1  0  0  0
 12 14  1  0  0  0
 12 25  1  0  0  0
 12 51  1  0  0  0
 12 52  1  0  0  0
 13 18  2  0  0  0
 13 24  1  0  0  0
 15 19  1  0  0  0
 16 23  1  0  0  0
 17 29  1  0  0  0
 18 20  1  0  0  0
 18 33  1  0  0  0
 19 24  2  0  0  0
 19 33  1  0  0  0
 20 25  1  0  0  0
 20 27  2  0  0  0
 21 22  1  0  0  0
 21 26  1  0  0  0
 21 28  2  0  0  0
 22 29  1  0  0  0
 23 30  1  0  0  0
 23 31  1  0  0  0
 23 32  1  0  0  0
 25 53  1  0  0  0
M  END
$$$$
